
  EPA STORM WATER MANAGEMENT MODEL - VERSION 5.1 (Build 5.2.0.dev1)
  --------------------------------------------------------------

  WARNING 10: crest elevation raised to downstream invert for regulator Link W-1010
  WARNING 10: crest elevation raised to downstream invert for regulator Link W-1059
  WARNING 10: crest elevation raised to downstream invert for regulator Link W-2001
  WARNING 02: maximum depth increased for Node BW2
  WARNING 02: maximum depth increased for Node J-1001
  WARNING 02: maximum depth increased for Node J-1002
  WARNING 02: maximum depth increased for Node J-1003
  WARNING 02: maximum depth increased for Node J-1004
  WARNING 02: maximum depth increased for Node J-1005
  WARNING 02: maximum depth increased for Node J-1006
  WARNING 02: maximum depth increased for Node J-1007
  WARNING 02: maximum depth increased for Node J-1008
  WARNING 02: maximum depth increased for Node J-1009
  WARNING 02: maximum depth increased for Node J-1010
  WARNING 02: maximum depth increased for Node J-1011
  WARNING 02: maximum depth increased for Node J-1012
  WARNING 02: maximum depth increased for Node J-1013
  WARNING 02: maximum depth increased for Node J-1014
  WARNING 02: maximum depth increased for Node J-1015
  WARNING 02: maximum depth increased for Node J-1016
  WARNING 02: maximum depth increased for Node J-1017
  WARNING 02: maximum depth increased for Node J-1018
  WARNING 02: maximum depth increased for Node J-1019
  WARNING 02: maximum depth increased for Node J-1020
  WARNING 02: maximum depth increased for Node J-1021
  WARNING 02: maximum depth increased for Node J-1022
  WARNING 02: maximum depth increased for Node J-1023
  WARNING 02: maximum depth increased for Node J-1024
  WARNING 02: maximum depth increased for Node J-1025
  WARNING 02: maximum depth increased for Node J-1026
  WARNING 02: maximum depth increased for Node J-1027
  WARNING 02: maximum depth increased for Node J-1028
  WARNING 02: maximum depth increased for Node J-1029
  WARNING 02: maximum depth increased for Node J-1030
  WARNING 02: maximum depth increased for Node J-1031
  WARNING 02: maximum depth increased for Node J-1032
  WARNING 02: maximum depth increased for Node J-1033
  WARNING 02: maximum depth increased for Node J-1034
  WARNING 02: maximum depth increased for Node J-1035
  WARNING 02: maximum depth increased for Node J-1036
  WARNING 02: maximum depth increased for Node J-1037
  WARNING 02: maximum depth increased for Node J-1038
  WARNING 02: maximum depth increased for Node J-1039
  WARNING 02: maximum depth increased for Node J-1040
  WARNING 02: maximum depth increased for Node J-1041
  WARNING 02: maximum depth increased for Node J-1042
  WARNING 02: maximum depth increased for Node J-1043
  WARNING 02: maximum depth increased for Node J-1044
  WARNING 02: maximum depth increased for Node J-1045
  WARNING 02: maximum depth increased for Node J-1046
  WARNING 02: maximum depth increased for Node J-1047
  WARNING 02: maximum depth increased for Node J-1048
  WARNING 02: maximum depth increased for Node J-1049
  WARNING 02: maximum depth increased for Node J-1050
  WARNING 02: maximum depth increased for Node J-1051
  WARNING 02: maximum depth increased for Node J-1052
  WARNING 02: maximum depth increased for Node J-1053
  WARNING 02: maximum depth increased for Node J-1054
  WARNING 02: maximum depth increased for Node J-1055
  WARNING 02: maximum depth increased for Node J-1056
  WARNING 02: maximum depth increased for Node J-1057
  WARNING 02: maximum depth increased for Node J-1058
  WARNING 02: maximum depth increased for Node J-1059
  WARNING 02: maximum depth increased for Node J-1060
  WARNING 02: maximum depth increased for Node J-1061
  WARNING 02: maximum depth increased for Node J-1062
  WARNING 02: maximum depth increased for Node J-1063
  WARNING 02: maximum depth increased for Node J-1064
  WARNING 02: maximum depth increased for Node J-1065
  WARNING 02: maximum depth increased for Node J-1066
  WARNING 02: maximum depth increased for Node J-1067
  WARNING 02: maximum depth increased for Node J-1068
  WARNING 02: maximum depth increased for Node J-1069
  WARNING 02: maximum depth increased for Node J-1070
  WARNING 02: maximum depth increased for Node J-1071
  WARNING 02: maximum depth increased for Node J-1072
  WARNING 02: maximum depth increased for Node J-1073
  WARNING 02: maximum depth increased for Node J-1074
  WARNING 02: maximum depth increased for Node J-1075
  WARNING 02: maximum depth increased for Node J-1076
  WARNING 02: maximum depth increased for Node J-1077
  WARNING 02: maximum depth increased for Node J-1078
  WARNING 02: maximum depth increased for Node J-1079
  WARNING 02: maximum depth increased for Node J-1080
  WARNING 02: maximum depth increased for Node J-1081
  WARNING 02: maximum depth increased for Node J-1082
  WARNING 02: maximum depth increased for Node J-1083
  WARNING 02: maximum depth increased for Node J-1084
  WARNING 02: maximum depth increased for Node J-1085
  WARNING 02: maximum depth increased for Node J-1086
  WARNING 02: maximum depth increased for Node J-1087
  WARNING 02: maximum depth increased for Node J-1088
  WARNING 02: maximum depth increased for Node J-1089
  WARNING 02: maximum depth increased for Node J-1090
  WARNING 02: maximum depth increased for Node J-1091
  WARNING 02: maximum depth increased for Node J-1092
  WARNING 02: maximum depth increased for Node J-1093
  WARNING 02: maximum depth increased for Node J-1094
  WARNING 02: maximum depth increased for Node J-1095
  WARNING 02: maximum depth increased for Node J-1096
  WARNING 02: maximum depth increased for Node J-1097
  WARNING 02: maximum depth increased for Node J-1098
  WARNING 02: maximum depth increased for Node J-1099
  WARNING 02: maximum depth increased for Node J-1100
  WARNING 02: maximum depth increased for Node J-1101
  WARNING 02: maximum depth increased for Node J-1102
  WARNING 02: maximum depth increased for Node J-1103
  WARNING 02: maximum depth increased for Node J-1104
  WARNING 02: maximum depth increased for Node J-1105
  WARNING 02: maximum depth increased for Node J-1106
  WARNING 02: maximum depth increased for Node J-1107
  WARNING 02: maximum depth increased for Node J-1108
  WARNING 02: maximum depth increased for Node J-1109
  WARNING 02: maximum depth increased for Node J-1110
  WARNING 02: maximum depth increased for Node J-1111
  WARNING 02: maximum depth increased for Node J-1112
  WARNING 02: maximum depth increased for Node J-1113
  WARNING 02: maximum depth increased for Node J-1114
  WARNING 02: maximum depth increased for Node J-1115
  WARNING 02: maximum depth increased for Node J-1116
  WARNING 02: maximum depth increased for Node J-1117
  WARNING 02: maximum depth increased for Node J-1118
  WARNING 02: maximum depth increased for Node J-1119
  WARNING 02: maximum depth increased for Node J-1120
  WARNING 02: maximum depth increased for Node J-1121
  WARNING 02: maximum depth increased for Node J-1122
  WARNING 02: maximum depth increased for Node J-1123
  WARNING 02: maximum depth increased for Node J-1124
  WARNING 02: maximum depth increased for Node J-1125
  WARNING 02: maximum depth increased for Node J-1126
  WARNING 02: maximum depth increased for Node J-1127
  WARNING 02: maximum depth increased for Node J-1128
  WARNING 02: maximum depth increased for Node J-1129
  WARNING 02: maximum depth increased for Node J-1130
  WARNING 02: maximum depth increased for Node J-1131
  WARNING 02: maximum depth increased for Node J-1132
  WARNING 02: maximum depth increased for Node J-1133
  WARNING 02: maximum depth increased for Node J-1134
  WARNING 02: maximum depth increased for Node J-1135
  WARNING 02: maximum depth increased for Node J-1136
  WARNING 02: maximum depth increased for Node J-1137
  WARNING 02: maximum depth increased for Node J-1138
  WARNING 02: maximum depth increased for Node J-1139
  WARNING 02: maximum depth increased for Node J-1140
  WARNING 02: maximum depth increased for Node J-1141
  WARNING 02: maximum depth increased for Node J-1142
  WARNING 02: maximum depth increased for Node J-1143
  WARNING 02: maximum depth increased for Node J-1144
  WARNING 02: maximum depth increased for Node J-1145
  WARNING 02: maximum depth increased for Node J-1146
  WARNING 02: maximum depth increased for Node J-1147
  WARNING 02: maximum depth increased for Node J-1148
  WARNING 02: maximum depth increased for Node J-1149
  WARNING 02: maximum depth increased for Node J-1150
  WARNING 02: maximum depth increased for Node J-1151
  WARNING 02: maximum depth increased for Node J-1152
  WARNING 02: maximum depth increased for Node J-1153
  WARNING 02: maximum depth increased for Node J-1154
  WARNING 02: maximum depth increased for Node J-1155
  WARNING 02: maximum depth increased for Node J-1156
  WARNING 02: maximum depth increased for Node J-1157
  WARNING 02: maximum depth increased for Node J-1158
  WARNING 02: maximum depth increased for Node J-1159
  WARNING 02: maximum depth increased for Node J-1160
  WARNING 02: maximum depth increased for Node J-1161
  WARNING 02: maximum depth increased for Node J-1162
  WARNING 02: maximum depth increased for Node J-1163
  WARNING 02: maximum depth increased for Node J-1164
  WARNING 02: maximum depth increased for Node J-1165
  WARNING 02: maximum depth increased for Node J-1166
  WARNING 02: maximum depth increased for Node J-1167
  WARNING 02: maximum depth increased for Node J-1168
  WARNING 02: maximum depth increased for Node J-1169
  WARNING 02: maximum depth increased for Node J-1170
  WARNING 02: maximum depth increased for Node J-1171
  WARNING 02: maximum depth increased for Node J-1172
  WARNING 02: maximum depth increased for Node J-1173
  WARNING 02: maximum depth increased for Node J-1174
  WARNING 02: maximum depth increased for Node J-1175
  WARNING 02: maximum depth increased for Node J-1176
  WARNING 02: maximum depth increased for Node J-1177
  WARNING 02: maximum depth increased for Node J-1178
  WARNING 02: maximum depth increased for Node J-1179
  WARNING 02: maximum depth increased for Node J-1180
  WARNING 02: maximum depth increased for Node J-1181
  WARNING 02: maximum depth increased for Node J-1182
  WARNING 02: maximum depth increased for Node J-1183
  WARNING 02: maximum depth increased for Node J-1184
  WARNING 02: maximum depth increased for Node J-1185
  WARNING 02: maximum depth increased for Node J-1186
  WARNING 02: maximum depth increased for Node J-1187
  WARNING 02: maximum depth increased for Node J-1188
  WARNING 02: maximum depth increased for Node J-1189
  WARNING 02: maximum depth increased for Node J-1190
  WARNING 02: maximum depth increased for Node J-1191
  WARNING 02: maximum depth increased for Node J-1192
  WARNING 02: maximum depth increased for Node J-1193
  WARNING 02: maximum depth increased for Node J-1194
  WARNING 02: maximum depth increased for Node J-1195
  WARNING 02: maximum depth increased for Node J-1196
  WARNING 02: maximum depth increased for Node J-1197
  WARNING 02: maximum depth increased for Node J-1198
  WARNING 02: maximum depth increased for Node J-1199
  WARNING 02: maximum depth increased for Node J-1200
  WARNING 02: maximum depth increased for Node J-1201
  WARNING 02: maximum depth increased for Node J-1202
  WARNING 02: maximum depth increased for Node J-1203
  WARNING 02: maximum depth increased for Node J-1204
  WARNING 02: maximum depth increased for Node J-1205
  WARNING 02: maximum depth increased for Node J-1206
  WARNING 02: maximum depth increased for Node J-1207
  WARNING 02: maximum depth increased for Node J-1208
  WARNING 02: maximum depth increased for Node J-1209
  WARNING 02: maximum depth increased for Node J-1210
  WARNING 02: maximum depth increased for Node J-1211
  WARNING 02: maximum depth increased for Node J-1212
  WARNING 02: maximum depth increased for Node J-1213
  WARNING 02: maximum depth increased for Node J-1214
  WARNING 02: maximum depth increased for Node J-1215
  WARNING 02: maximum depth increased for Node J-1216
  WARNING 02: maximum depth increased for Node J-1217
  WARNING 02: maximum depth increased for Node J-1218
  WARNING 02: maximum depth increased for Node J-1219
  WARNING 02: maximum depth increased for Node J-1220
  WARNING 02: maximum depth increased for Node J-1221
  WARNING 02: maximum depth increased for Node J-1222
  WARNING 02: maximum depth increased for Node J-1223
  WARNING 02: maximum depth increased for Node J-1224
  WARNING 02: maximum depth increased for Node J-1225
  WARNING 02: maximum depth increased for Node J-1226
  WARNING 02: maximum depth increased for Node J-1227
  WARNING 02: maximum depth increased for Node J-1228
  WARNING 02: maximum depth increased for Node J-1229
  WARNING 02: maximum depth increased for Node J-1230
  WARNING 02: maximum depth increased for Node J-1231
  WARNING 02: maximum depth increased for Node J-1232
  WARNING 02: maximum depth increased for Node J-1233
  WARNING 02: maximum depth increased for Node J-1234
  WARNING 02: maximum depth increased for Node J-1235
  WARNING 02: maximum depth increased for Node J-1236
  WARNING 02: maximum depth increased for Node J-1237
  WARNING 02: maximum depth increased for Node J-1238
  WARNING 02: maximum depth increased for Node J-1239
  WARNING 02: maximum depth increased for Node J-1240
  WARNING 02: maximum depth increased for Node J-1241
  WARNING 02: maximum depth increased for Node J-1242
  WARNING 02: maximum depth increased for Node J-1243
  WARNING 02: maximum depth increased for Node J-1244
  WARNING 02: maximum depth increased for Node J-1245
  WARNING 02: maximum depth increased for Node J-1246
  WARNING 02: maximum depth increased for Node J-1247
  WARNING 02: maximum depth increased for Node J-1248
  WARNING 02: maximum depth increased for Node J-1249
  WARNING 02: maximum depth increased for Node J-1250
  WARNING 02: maximum depth increased for Node J-1251
  WARNING 02: maximum depth increased for Node J-1252
  WARNING 02: maximum depth increased for Node J-1253
  WARNING 02: maximum depth increased for Node J-1254
  WARNING 02: maximum depth increased for Node J-1255
  WARNING 02: maximum depth increased for Node J-1256
  WARNING 02: maximum depth increased for Node J-1257
  WARNING 02: maximum depth increased for Node J-1258
  WARNING 02: maximum depth increased for Node J-1259
  WARNING 02: maximum depth increased for Node J-1260
  WARNING 02: maximum depth increased for Node J-1261
  WARNING 02: maximum depth increased for Node J-1262
  WARNING 02: maximum depth increased for Node J-1263
  WARNING 02: maximum depth increased for Node J-1264
  WARNING 02: maximum depth increased for Node J-1265
  WARNING 02: maximum depth increased for Node J-1266
  WARNING 02: maximum depth increased for Node J-1267
  WARNING 02: maximum depth increased for Node J-1268
  WARNING 02: maximum depth increased for Node J-1269
  WARNING 02: maximum depth increased for Node J-1270
  WARNING 02: maximum depth increased for Node J-1271
  WARNING 02: maximum depth increased for Node J-1272
  WARNING 02: maximum depth increased for Node J-1273
  WARNING 02: maximum depth increased for Node J-1274
  WARNING 02: maximum depth increased for Node J-1275
  WARNING 02: maximum depth increased for Node J-1276
  WARNING 02: maximum depth increased for Node J-1277
  WARNING 02: maximum depth increased for Node J-1278
  WARNING 02: maximum depth increased for Node J-1279
  WARNING 02: maximum depth increased for Node J-1280
  WARNING 02: maximum depth increased for Node J-1281
  WARNING 02: maximum depth increased for Node J-1282
  WARNING 02: maximum depth increased for Node J-1283
  WARNING 02: maximum depth increased for Node J-1284
  WARNING 02: maximum depth increased for Node J-1285
  WARNING 02: maximum depth increased for Node J-1286
  WARNING 02: maximum depth increased for Node J-1287
  WARNING 02: maximum depth increased for Node J-1288
  WARNING 02: maximum depth increased for Node J-1289
  WARNING 02: maximum depth increased for Node J-1290
  WARNING 02: maximum depth increased for Node J-1291
  WARNING 02: maximum depth increased for Node J-1292
  WARNING 02: maximum depth increased for Node J-1293
  WARNING 02: maximum depth increased for Node J-1294
  WARNING 02: maximum depth increased for Node J-1295
  WARNING 02: maximum depth increased for Node J-1296
  WARNING 02: maximum depth increased for Node J-1297
  WARNING 02: maximum depth increased for Node J-1298
  WARNING 02: maximum depth increased for Node J-1299
  WARNING 02: maximum depth increased for Node J-1300
  WARNING 02: maximum depth increased for Node J-1301
  WARNING 02: maximum depth increased for Node J-1302
  WARNING 02: maximum depth increased for Node J-1303
  WARNING 02: maximum depth increased for Node J-1304
  WARNING 02: maximum depth increased for Node J-1305
  WARNING 02: maximum depth increased for Node J-1306
  WARNING 02: maximum depth increased for Node J-1307
  WARNING 02: maximum depth increased for Node J-1308
  WARNING 02: maximum depth increased for Node J-1309
  WARNING 02: maximum depth increased for Node J-1310
  WARNING 02: maximum depth increased for Node J-1311
  WARNING 02: maximum depth increased for Node J-1312
  WARNING 02: maximum depth increased for Node J-1313
  WARNING 02: maximum depth increased for Node J-1314
  WARNING 02: maximum depth increased for Node J-1315
  WARNING 02: maximum depth increased for Node J-1316
  WARNING 02: maximum depth increased for Node J-1317
  WARNING 02: maximum depth increased for Node J-1318
  WARNING 02: maximum depth increased for Node J-1319
  WARNING 02: maximum depth increased for Node J-1320
  WARNING 02: maximum depth increased for Node J-1321
  WARNING 02: maximum depth increased for Node J-1322
  WARNING 02: maximum depth increased for Node J-1323
  WARNING 02: maximum depth increased for Node J-1324
  WARNING 02: maximum depth increased for Node J-1325
  WARNING 02: maximum depth increased for Node J-1326
  WARNING 02: maximum depth increased for Node J-1327
  WARNING 02: maximum depth increased for Node J-1328
  WARNING 02: maximum depth increased for Node J-1329
  WARNING 02: maximum depth increased for Node J-1330
  WARNING 02: maximum depth increased for Node J-1331
  WARNING 02: maximum depth increased for Node J-1332
  WARNING 02: maximum depth increased for Node J-1333
  WARNING 02: maximum depth increased for Node J-1334
  WARNING 02: maximum depth increased for Node J-1335
  WARNING 02: maximum depth increased for Node J-1336
  WARNING 02: maximum depth increased for Node J-1337
  WARNING 02: maximum depth increased for Node J-1338
  WARNING 02: maximum depth increased for Node J-1339
  WARNING 02: maximum depth increased for Node J-1340
  WARNING 02: maximum depth increased for Node J-1341
  WARNING 02: maximum depth increased for Node J-1342
  WARNING 02: maximum depth increased for Node J-1343
  WARNING 02: maximum depth increased for Node J-1344
  WARNING 02: maximum depth increased for Node J-1345
  WARNING 02: maximum depth increased for Node J-1346
  WARNING 02: maximum depth increased for Node J-1347
  WARNING 02: maximum depth increased for Node J-1348
  WARNING 02: maximum depth increased for Node J-1349
  WARNING 02: maximum depth increased for Node J-1350
  WARNING 02: maximum depth increased for Node J-1351
  WARNING 02: maximum depth increased for Node J-1352
  WARNING 02: maximum depth increased for Node J-1353
  WARNING 02: maximum depth increased for Node J-1354
  WARNING 02: maximum depth increased for Node J-1355
  WARNING 02: maximum depth increased for Node J-1356
  WARNING 02: maximum depth increased for Node J-1357
  WARNING 02: maximum depth increased for Node J-1358
  WARNING 02: maximum depth increased for Node J-1359
  WARNING 02: maximum depth increased for Node J-1360
  WARNING 02: maximum depth increased for Node J-1361
  WARNING 02: maximum depth increased for Node J-1362
  WARNING 02: maximum depth increased for Node J-1363
  WARNING 02: maximum depth increased for Node J-1364
  WARNING 02: maximum depth increased for Node J-1365
  WARNING 02: maximum depth increased for Node J-1366
  WARNING 02: maximum depth increased for Node J-1367
  WARNING 02: maximum depth increased for Node J-1368
  WARNING 02: maximum depth increased for Node J-1369
  WARNING 02: maximum depth increased for Node J-1370
  WARNING 02: maximum depth increased for Node J-1371
  WARNING 02: maximum depth increased for Node J-1372
  WARNING 02: maximum depth increased for Node J-1373
  WARNING 02: maximum depth increased for Node J-1374
  WARNING 02: maximum depth increased for Node J-1375
  WARNING 02: maximum depth increased for Node J-1376
  WARNING 02: maximum depth increased for Node J-1377
  WARNING 02: maximum depth increased for Node J-1378
  WARNING 02: maximum depth increased for Node J-1379
  WARNING 02: maximum depth increased for Node J-1380
  WARNING 02: maximum depth increased for Node J-1381
  WARNING 02: maximum depth increased for Node J-1382
  WARNING 02: maximum depth increased for Node J-1383
  WARNING 02: maximum depth increased for Node J-1384
  WARNING 02: maximum depth increased for Node J-1385
  WARNING 02: maximum depth increased for Node J-1386
  WARNING 02: maximum depth increased for Node J-1387
  WARNING 02: maximum depth increased for Node J-1388
  WARNING 02: maximum depth increased for Node J-1389
  WARNING 02: maximum depth increased for Node J-1390
  WARNING 02: maximum depth increased for Node J-1391
  WARNING 02: maximum depth increased for Node J-1392
  WARNING 02: maximum depth increased for Node J-1393
  WARNING 02: maximum depth increased for Node J-1394
  WARNING 02: maximum depth increased for Node J-1395
  WARNING 02: maximum depth increased for Node J-1396
  WARNING 02: maximum depth increased for Node J-1397
  WARNING 02: maximum depth increased for Node J-1398
  WARNING 02: maximum depth increased for Node J-1399
  WARNING 02: maximum depth increased for Node J-1400
  WARNING 02: maximum depth increased for Node J-1401
  WARNING 02: maximum depth increased for Node J-1402
  WARNING 02: maximum depth increased for Node J-1403
  WARNING 02: maximum depth increased for Node J-1404
  WARNING 02: maximum depth increased for Node J-1405
  WARNING 02: maximum depth increased for Node J-1406
  WARNING 02: maximum depth increased for Node J-1407
  WARNING 02: maximum depth increased for Node J-1408
  WARNING 02: maximum depth increased for Node J-1409
  WARNING 02: maximum depth increased for Node J-1410
  WARNING 02: maximum depth increased for Node J-1411
  WARNING 02: maximum depth increased for Node J-1412
  WARNING 02: maximum depth increased for Node J-1413
  WARNING 02: maximum depth increased for Node J-1414
  WARNING 02: maximum depth increased for Node J-1415
  WARNING 02: maximum depth increased for Node J-1416
  WARNING 02: maximum depth increased for Node J-1417
  WARNING 02: maximum depth increased for Node J-1418
  WARNING 02: maximum depth increased for Node J-1419
  WARNING 02: maximum depth increased for Node J-1420
  WARNING 02: maximum depth increased for Node J-1421
  WARNING 02: maximum depth increased for Node J-1422
  WARNING 02: maximum depth increased for Node J-1423
  WARNING 02: maximum depth increased for Node J-1424
  WARNING 02: maximum depth increased for Node J-1425
  WARNING 02: maximum depth increased for Node J-1426
  WARNING 02: maximum depth increased for Node J-1427
  WARNING 02: maximum depth increased for Node J-1428
  WARNING 02: maximum depth increased for Node J-1429
  WARNING 02: maximum depth increased for Node J-1430
  WARNING 02: maximum depth increased for Node J-1431
  WARNING 02: maximum depth increased for Node J-1432
  WARNING 02: maximum depth increased for Node J-1433
  WARNING 02: maximum depth increased for Node J-1434
  WARNING 02: maximum depth increased for Node J-1435
  WARNING 02: maximum depth increased for Node J-1436
  WARNING 02: maximum depth increased for Node J-1437
  WARNING 02: maximum depth increased for Node J-1438
  WARNING 02: maximum depth increased for Node J-1439
  WARNING 02: maximum depth increased for Node J-1440
  WARNING 02: maximum depth increased for Node J-1441
  WARNING 02: maximum depth increased for Node J-1442
  WARNING 02: maximum depth increased for Node J-1443
  WARNING 02: maximum depth increased for Node J-1444
  WARNING 02: maximum depth increased for Node J-1445
  WARNING 02: maximum depth increased for Node J-1446
  WARNING 02: maximum depth increased for Node J-1447
  WARNING 02: maximum depth increased for Node J-1448
  WARNING 02: maximum depth increased for Node J-1449
  WARNING 02: maximum depth increased for Node J-1450
  WARNING 02: maximum depth increased for Node J-1451
  WARNING 02: maximum depth increased for Node J-1452
  WARNING 02: maximum depth increased for Node J-1453
  WARNING 02: maximum depth increased for Node J-1454
  WARNING 02: maximum depth increased for Node J-1455
  WARNING 02: maximum depth increased for Node J-1456
  WARNING 02: maximum depth increased for Node J-1457
  WARNING 02: maximum depth increased for Node J-1458
  WARNING 02: maximum depth increased for Node J-1459
  WARNING 02: maximum depth increased for Node J-1460
  WARNING 02: maximum depth increased for Node J-1461
  WARNING 02: maximum depth increased for Node J-1462
  WARNING 02: maximum depth increased for Node J-1463
  WARNING 02: maximum depth increased for Node J-1464
  WARNING 02: maximum depth increased for Node J-1465
  WARNING 02: maximum depth increased for Node J-1466
  WARNING 02: maximum depth increased for Node J-1467
  WARNING 02: maximum depth increased for Node J-1468
  WARNING 02: maximum depth increased for Node J-1469
  WARNING 02: maximum depth increased for Node J-1470
  WARNING 02: maximum depth increased for Node J-1471
  WARNING 02: maximum depth increased for Node J-1472
  WARNING 02: maximum depth increased for Node J-1473
  WARNING 02: maximum depth increased for Node J-1474
  WARNING 02: maximum depth increased for Node J-1475
  WARNING 02: maximum depth increased for Node J-1476
  WARNING 02: maximum depth increased for Node J-1477
  WARNING 02: maximum depth increased for Node J-1478
  WARNING 02: maximum depth increased for Node J-1479
  WARNING 02: maximum depth increased for Node J-1480
  WARNING 02: maximum depth increased for Node J-1481
  WARNING 02: maximum depth increased for Node J-1482
  WARNING 02: maximum depth increased for Node J-1483
  WARNING 02: maximum depth increased for Node J-1484
  WARNING 02: maximum depth increased for Node J-1485
  WARNING 02: maximum depth increased for Node J-1486
  WARNING 02: maximum depth increased for Node J-1487
  WARNING 02: maximum depth increased for Node J-1488
  WARNING 02: maximum depth increased for Node J-1489
  WARNING 02: maximum depth increased for Node J-1490
  WARNING 02: maximum depth increased for Node J-1491
  WARNING 02: maximum depth increased for Node J-1492
  WARNING 02: maximum depth increased for Node J-1493
  WARNING 02: maximum depth increased for Node J-1494
  WARNING 02: maximum depth increased for Node J-1495
  WARNING 02: maximum depth increased for Node J-1496
  WARNING 02: maximum depth increased for Node J-1497
  WARNING 02: maximum depth increased for Node J-1498
  WARNING 02: maximum depth increased for Node J-1499
  WARNING 02: maximum depth increased for Node J-1500
  WARNING 02: maximum depth increased for Node J-1501
  WARNING 02: maximum depth increased for Node J-1502
  WARNING 02: maximum depth increased for Node J-1503
  WARNING 02: maximum depth increased for Node J-1504
  WARNING 02: maximum depth increased for Node J-1505
  WARNING 02: maximum depth increased for Node J-1506
  WARNING 02: maximum depth increased for Node J-1507
  WARNING 02: maximum depth increased for Node J-1508
  WARNING 02: maximum depth increased for Node J-1509
  WARNING 02: maximum depth increased for Node J-1510
  WARNING 02: maximum depth increased for Node J-1511
  WARNING 02: maximum depth increased for Node J-1512
  WARNING 02: maximum depth increased for Node J-1513
  WARNING 02: maximum depth increased for Node J-1514
  WARNING 02: maximum depth increased for Node J-1515
  WARNING 02: maximum depth increased for Node J-1517
  WARNING 02: maximum depth increased for Node J-1518
  WARNING 02: maximum depth increased for Node J-1519
  WARNING 02: maximum depth increased for Node J-1520
  WARNING 02: maximum depth increased for Node J-1521
  WARNING 02: maximum depth increased for Node J-1522
  WARNING 02: maximum depth increased for Node J-1523
  WARNING 02: maximum depth increased for Node J-1524
  WARNING 02: maximum depth increased for Node J-1525
  WARNING 02: maximum depth increased for Node J-1526
  WARNING 02: maximum depth increased for Node J-1527
  WARNING 02: maximum depth increased for Node J-1528
  WARNING 02: maximum depth increased for Node J-1529
  WARNING 02: maximum depth increased for Node J-1530
  WARNING 02: maximum depth increased for Node J-1531
  WARNING 02: maximum depth increased for Node J-1532
  WARNING 02: maximum depth increased for Node J-1533
  WARNING 02: maximum depth increased for Node J-1534
  WARNING 02: maximum depth increased for Node J-1535
  WARNING 02: maximum depth increased for Node J-1536
  WARNING 02: maximum depth increased for Node J-1537
  WARNING 02: maximum depth increased for Node J-1538
  WARNING 02: maximum depth increased for Node J-1539
  WARNING 02: maximum depth increased for Node J-1540
  WARNING 02: maximum depth increased for Node J-1541
  WARNING 02: maximum depth increased for Node J-1542
  WARNING 02: maximum depth increased for Node J-1543
  WARNING 02: maximum depth increased for Node J-1544
  WARNING 02: maximum depth increased for Node J-1545
  WARNING 02: maximum depth increased for Node J-1546
  WARNING 02: maximum depth increased for Node J-1547
  WARNING 02: maximum depth increased for Node J-1548
  WARNING 02: maximum depth increased for Node J-1549
  WARNING 02: maximum depth increased for Node J-1550
  WARNING 02: maximum depth increased for Node J-1551
  WARNING 02: maximum depth increased for Node J-1552
  WARNING 02: maximum depth increased for Node J-1553
  WARNING 02: maximum depth increased for Node J-1554
  WARNING 02: maximum depth increased for Node J-1555
  WARNING 02: maximum depth increased for Node J-1556
  WARNING 02: maximum depth increased for Node J-1557
  WARNING 02: maximum depth increased for Node J-1558
  WARNING 02: maximum depth increased for Node J-1559
  WARNING 02: maximum depth increased for Node J-1560
  WARNING 02: maximum depth increased for Node J-1561
  WARNING 02: maximum depth increased for Node J-1562
  WARNING 02: maximum depth increased for Node J-1563
  WARNING 02: maximum depth increased for Node J-1564
  WARNING 02: maximum depth increased for Node J-1565
  WARNING 02: maximum depth increased for Node J-1566
  WARNING 02: maximum depth increased for Node J-1567
  WARNING 02: maximum depth increased for Node J-1568
  WARNING 02: maximum depth increased for Node J-1569
  WARNING 02: maximum depth increased for Node J-1570
  WARNING 02: maximum depth increased for Node J-1571
  WARNING 02: maximum depth increased for Node J-1572
  WARNING 02: maximum depth increased for Node J-1573
  WARNING 02: maximum depth increased for Node J-1574
  WARNING 02: maximum depth increased for Node J-1575
  WARNING 02: maximum depth increased for Node J-1576
  WARNING 02: maximum depth increased for Node J-1577
  WARNING 02: maximum depth increased for Node J-1578
  WARNING 02: maximum depth increased for Node J-1579
  WARNING 02: maximum depth increased for Node J-1580
  WARNING 02: maximum depth increased for Node J-1581
  WARNING 02: maximum depth increased for Node J-1582
  WARNING 02: maximum depth increased for Node J-1583
  WARNING 02: maximum depth increased for Node J-1584
  WARNING 02: maximum depth increased for Node J-1585
  WARNING 02: maximum depth increased for Node J-1586
  WARNING 02: maximum depth increased for Node J-1587
  WARNING 02: maximum depth increased for Node J-1588
  WARNING 02: maximum depth increased for Node J-1589
  WARNING 02: maximum depth increased for Node J-1590
  WARNING 02: maximum depth increased for Node J-1591
  WARNING 02: maximum depth increased for Node J-1592
  WARNING 02: maximum depth increased for Node J-1593
  WARNING 02: maximum depth increased for Node J-1594
  WARNING 02: maximum depth increased for Node J-1595
  WARNING 02: maximum depth increased for Node J-1596
  WARNING 02: maximum depth increased for Node J-1597
  WARNING 02: maximum depth increased for Node J-1598
  WARNING 02: maximum depth increased for Node J-1599
  WARNING 02: maximum depth increased for Node J-1600
  WARNING 02: maximum depth increased for Node J-1601
  WARNING 02: maximum depth increased for Node J-1602
  WARNING 02: maximum depth increased for Node J-1603
  WARNING 02: maximum depth increased for Node J-1604
  WARNING 02: maximum depth increased for Node J-1605
  WARNING 02: maximum depth increased for Node J-1606
  WARNING 02: maximum depth increased for Node J-1607
  WARNING 02: maximum depth increased for Node J-1608
  WARNING 02: maximum depth increased for Node J-1609
  WARNING 02: maximum depth increased for Node J-1610
  WARNING 02: maximum depth increased for Node J-1611
  WARNING 02: maximum depth increased for Node J-1612
  WARNING 02: maximum depth increased for Node J-1613
  WARNING 02: maximum depth increased for Node J-1614
  WARNING 02: maximum depth increased for Node J-1615
  WARNING 02: maximum depth increased for Node J-1616
  WARNING 02: maximum depth increased for Node J-1617
  WARNING 02: maximum depth increased for Node J-1618
  WARNING 02: maximum depth increased for Node J-1619
  WARNING 02: maximum depth increased for Node J-1620
  WARNING 02: maximum depth increased for Node J-1621
  WARNING 02: maximum depth increased for Node J-1622
  WARNING 02: maximum depth increased for Node J-1623
  WARNING 02: maximum depth increased for Node J-1624
  WARNING 02: maximum depth increased for Node J-1625
  WARNING 02: maximum depth increased for Node J-1626
  WARNING 02: maximum depth increased for Node J-1627
  WARNING 02: maximum depth increased for Node J-1628
  WARNING 02: maximum depth increased for Node J-1629
  WARNING 02: maximum depth increased for Node J-1630
  WARNING 02: maximum depth increased for Node J-1631
  WARNING 02: maximum depth increased for Node J-1632
  WARNING 02: maximum depth increased for Node J-1633
  WARNING 02: maximum depth increased for Node J-1634
  WARNING 02: maximum depth increased for Node J-1635
  WARNING 02: maximum depth increased for Node J-1636
  WARNING 02: maximum depth increased for Node J-1637
  WARNING 02: maximum depth increased for Node J-1638
  WARNING 02: maximum depth increased for Node J-1639
  WARNING 02: maximum depth increased for Node J-1640
  WARNING 02: maximum depth increased for Node J-1641
  WARNING 02: maximum depth increased for Node J-1642
  WARNING 02: maximum depth increased for Node J-1643
  WARNING 02: maximum depth increased for Node J-1644
  WARNING 02: maximum depth increased for Node J-1645
  WARNING 02: maximum depth increased for Node J-1646
  WARNING 02: maximum depth increased for Node J-1647
  WARNING 02: maximum depth increased for Node J-1648
  WARNING 02: maximum depth increased for Node J-1649
  WARNING 02: maximum depth increased for Node J-1650
  WARNING 02: maximum depth increased for Node J-1651
  WARNING 02: maximum depth increased for Node J-1652
  WARNING 02: maximum depth increased for Node J-1653
  WARNING 02: maximum depth increased for Node J-1654
  WARNING 02: maximum depth increased for Node J-1655
  WARNING 02: maximum depth increased for Node J-1656
  WARNING 02: maximum depth increased for Node J-1657
  WARNING 02: maximum depth increased for Node J-1658
  WARNING 02: maximum depth increased for Node J-1659
  WARNING 02: maximum depth increased for Node J-1660
  WARNING 02: maximum depth increased for Node J-1661
  WARNING 02: maximum depth increased for Node J-1662
  WARNING 02: maximum depth increased for Node J-1663
  WARNING 02: maximum depth increased for Node J-1664
  WARNING 02: maximum depth increased for Node J-1665
  WARNING 02: maximum depth increased for Node J-1666
  WARNING 02: maximum depth increased for Node J-1667
  WARNING 02: maximum depth increased for Node J-1668
  WARNING 02: maximum depth increased for Node J-1669
  WARNING 02: maximum depth increased for Node J-1670
  WARNING 02: maximum depth increased for Node J-1671
  WARNING 02: maximum depth increased for Node J-1672
  WARNING 02: maximum depth increased for Node J-1673
  WARNING 02: maximum depth increased for Node J-1674
  WARNING 02: maximum depth increased for Node J-1675
  WARNING 02: maximum depth increased for Node J-1676
  WARNING 02: maximum depth increased for Node J-1677
  WARNING 02: maximum depth increased for Node J-1678
  WARNING 02: maximum depth increased for Node J-1679
  WARNING 02: maximum depth increased for Node J-1680
  WARNING 02: maximum depth increased for Node J-1681
  WARNING 02: maximum depth increased for Node J-1682
  WARNING 02: maximum depth increased for Node J-1683
  WARNING 02: maximum depth increased for Node J-1684
  WARNING 02: maximum depth increased for Node J-1685
  WARNING 02: maximum depth increased for Node J-1686
  WARNING 02: maximum depth increased for Node J-1687
  WARNING 02: maximum depth increased for Node J-1688
  WARNING 02: maximum depth increased for Node J-1689
  WARNING 02: maximum depth increased for Node J-1690
  WARNING 02: maximum depth increased for Node J-1691
  WARNING 02: maximum depth increased for Node J-1692
  WARNING 02: maximum depth increased for Node J-1693
  WARNING 02: maximum depth increased for Node J-1694
  WARNING 02: maximum depth increased for Node J-1695
  WARNING 02: maximum depth increased for Node J-1696
  WARNING 02: maximum depth increased for Node J-1697
  WARNING 02: maximum depth increased for Node J-1698
  WARNING 02: maximum depth increased for Node J-1699
  WARNING 02: maximum depth increased for Node J-1700
  WARNING 02: maximum depth increased for Node J-1701
  WARNING 02: maximum depth increased for Node J-1702
  WARNING 02: maximum depth increased for Node J-1703
  WARNING 02: maximum depth increased for Node J-1704
  WARNING 02: maximum depth increased for Node J-1705
  WARNING 02: maximum depth increased for Node J-1706
  WARNING 02: maximum depth increased for Node J-1707
  WARNING 02: maximum depth increased for Node J-1708
  WARNING 02: maximum depth increased for Node J-1709
  WARNING 02: maximum depth increased for Node J-1710
  WARNING 02: maximum depth increased for Node J-1711
  WARNING 02: maximum depth increased for Node J-1712
  WARNING 02: maximum depth increased for Node J-1713
  WARNING 02: maximum depth increased for Node J-1714
  WARNING 02: maximum depth increased for Node J-1715
  WARNING 02: maximum depth increased for Node J-1716
  WARNING 02: maximum depth increased for Node J-1717
  WARNING 02: maximum depth increased for Node J-1718
  WARNING 02: maximum depth increased for Node J-1719
  WARNING 02: maximum depth increased for Node J-1720
  WARNING 02: maximum depth increased for Node J-1721
  WARNING 02: maximum depth increased for Node J-1722
  WARNING 02: maximum depth increased for Node J-1723
  WARNING 02: maximum depth increased for Node J-1724
  WARNING 02: maximum depth increased for Node J-1725
  WARNING 02: maximum depth increased for Node J-1726
  WARNING 02: maximum depth increased for Node J-1727
  WARNING 02: maximum depth increased for Node J-1728
  WARNING 02: maximum depth increased for Node J-1729
  WARNING 02: maximum depth increased for Node J-1730
  WARNING 02: maximum depth increased for Node J-1731
  WARNING 02: maximum depth increased for Node J-1732
  WARNING 02: maximum depth increased for Node J-1733
  WARNING 02: maximum depth increased for Node J-1734
  WARNING 02: maximum depth increased for Node J-1735
  WARNING 02: maximum depth increased for Node J-1736
  WARNING 02: maximum depth increased for Node J-1737
  WARNING 02: maximum depth increased for Node J-1738
  WARNING 02: maximum depth increased for Node J-1739
  WARNING 02: maximum depth increased for Node J-1740
  WARNING 02: maximum depth increased for Node J-1741
  WARNING 02: maximum depth increased for Node J-1742
  WARNING 02: maximum depth increased for Node J-1743
  WARNING 02: maximum depth increased for Node J-1744
  WARNING 02: maximum depth increased for Node J-1745
  WARNING 02: maximum depth increased for Node J-1746
  WARNING 02: maximum depth increased for Node J-1747
  WARNING 02: maximum depth increased for Node J-1748
  WARNING 02: maximum depth increased for Node J-1749
  WARNING 02: maximum depth increased for Node J-1750
  WARNING 02: maximum depth increased for Node J-1751
  WARNING 02: maximum depth increased for Node J-1752
  WARNING 02: maximum depth increased for Node J-1753
  WARNING 02: maximum depth increased for Node J-1754
  WARNING 02: maximum depth increased for Node J-1755
  WARNING 02: maximum depth increased for Node J-1756
  WARNING 02: maximum depth increased for Node J-1757
  WARNING 02: maximum depth increased for Node J-1758
  WARNING 02: maximum depth increased for Node J-1759
  WARNING 02: maximum depth increased for Node J-1760
  WARNING 02: maximum depth increased for Node J-1761
  WARNING 02: maximum depth increased for Node J-1762
  WARNING 02: maximum depth increased for Node J-1763
  WARNING 02: maximum depth increased for Node J-1764
  WARNING 02: maximum depth increased for Node J-1765
  WARNING 02: maximum depth increased for Node J-1766
  WARNING 02: maximum depth increased for Node J-1767
  WARNING 02: maximum depth increased for Node J-1768
  WARNING 02: maximum depth increased for Node J-1769
  WARNING 02: maximum depth increased for Node J-1770
  WARNING 02: maximum depth increased for Node J-1771
  WARNING 02: maximum depth increased for Node J-1772
  WARNING 02: maximum depth increased for Node J-1773
  WARNING 02: maximum depth increased for Node J-1774
  WARNING 02: maximum depth increased for Node J-1775
  WARNING 02: maximum depth increased for Node J-1776
  WARNING 02: maximum depth increased for Node J-1777
  WARNING 02: maximum depth increased for Node J-1778
  WARNING 02: maximum depth increased for Node J-1779
  WARNING 02: maximum depth increased for Node J-1780
  WARNING 02: maximum depth increased for Node J-1781
  WARNING 02: maximum depth increased for Node J-1782
  WARNING 02: maximum depth increased for Node J-1783
  WARNING 02: maximum depth increased for Node J-1784
  WARNING 02: maximum depth increased for Node J-1785
  WARNING 02: maximum depth increased for Node J-1786
  WARNING 02: maximum depth increased for Node J-1787
  WARNING 02: maximum depth increased for Node J-1788
  WARNING 02: maximum depth increased for Node J-1789
  WARNING 02: maximum depth increased for Node J-1801
  WARNING 02: maximum depth increased for Node J-1811
  WARNING 02: maximum depth increased for Node J-1812
  WARNING 02: maximum depth increased for Node J-1813
  WARNING 02: maximum depth increased for Node J-1814
  WARNING 02: maximum depth increased for Node J-1815
  WARNING 02: maximum depth increased for Node J-1818
  WARNING 02: maximum depth increased for Node J-1819
  WARNING 02: maximum depth increased for Node J-1820
  WARNING 02: maximum depth increased for Node J-1822
  WARNING 02: maximum depth increased for Node J-1824
  WARNING 02: maximum depth increased for Node J-1826
  WARNING 02: maximum depth increased for Node J-1827
  WARNING 02: maximum depth increased for Node J-1828
  WARNING 02: maximum depth increased for Node J-1829
  WARNING 02: maximum depth increased for Node J-1830
  WARNING 02: maximum depth increased for Node J-1831
  WARNING 02: maximum depth increased for Node J-1832
  WARNING 02: maximum depth increased for Node J-1833
  WARNING 02: maximum depth increased for Node J-1834
  WARNING 02: maximum depth increased for Node J-1835
  WARNING 02: maximum depth increased for Node J-1838
  WARNING 02: maximum depth increased for Node J-1840
  WARNING 02: maximum depth increased for Node J-1842
  WARNING 02: maximum depth increased for Node J-1843
  WARNING 02: maximum depth increased for Node J-1845
  WARNING 02: maximum depth increased for Node J-1846
  WARNING 02: maximum depth increased for Node J-1849
  WARNING 02: maximum depth increased for Node J-1851
  WARNING 02: maximum depth increased for Node J-1852
  WARNING 02: maximum depth increased for Node J-1853
  WARNING 02: maximum depth increased for Node J-1854
  WARNING 02: maximum depth increased for Node J-1856
  WARNING 02: maximum depth increased for Node J-1858
  WARNING 02: maximum depth increased for Node J-1860
  WARNING 02: maximum depth increased for Node J-1861
  WARNING 02: maximum depth increased for Node J-1862
  WARNING 02: maximum depth increased for Node J-1863
  WARNING 02: maximum depth increased for Node J-1864
  WARNING 02: maximum depth increased for Node J-1865
  WARNING 02: maximum depth increased for Node J-1867
  WARNING 02: maximum depth increased for Node J-1868
  WARNING 02: maximum depth increased for Node J-1869
  WARNING 02: maximum depth increased for Node J-1870
  WARNING 02: maximum depth increased for Node J-1872
  WARNING 02: maximum depth increased for Node J-1874
  WARNING 02: maximum depth increased for Node J-1875
  WARNING 02: maximum depth increased for Node J-1877
  WARNING 02: maximum depth increased for Node J-2001
  WARNING 02: maximum depth increased for Node J-2002
  WARNING 02: maximum depth increased for Node J-2003
  WARNING 02: maximum depth increased for Node J-2004
  WARNING 02: maximum depth increased for Node J-2005
  WARNING 02: maximum depth increased for Node J-2006
  WARNING 02: maximum depth increased for Node J-2007
  WARNING 02: maximum depth increased for Node J-2008
  WARNING 02: maximum depth increased for Node J-2009
  WARNING 02: maximum depth increased for Node J-2010
  WARNING 02: maximum depth increased for Node J-2011
  WARNING 02: maximum depth increased for Node J-2012
  WARNING 02: maximum depth increased for Node J-2013
  WARNING 02: maximum depth increased for Node J-2014
  WARNING 02: maximum depth increased for Node J-2015
  WARNING 02: maximum depth increased for Node J-2016
  WARNING 02: maximum depth increased for Node J-2017
  WARNING 02: maximum depth increased for Node J-2018
  WARNING 02: maximum depth increased for Node J-2019
  WARNING 02: maximum depth increased for Node J-2020
  WARNING 02: maximum depth increased for Node J-2021
  WARNING 02: maximum depth increased for Node J-2022
  WARNING 02: maximum depth increased for Node J-2023
  WARNING 02: maximum depth increased for Node J-2024
  WARNING 02: maximum depth increased for Node J-2025
  WARNING 02: maximum depth increased for Node J-2026
  WARNING 02: maximum depth increased for Node J-2027
  WARNING 02: maximum depth increased for Node J-2028
  WARNING 02: maximum depth increased for Node J-2029
  WARNING 02: maximum depth increased for Node J-2030
  WARNING 02: maximum depth increased for Node J-2031
  WARNING 02: maximum depth increased for Node J-2032
  WARNING 02: maximum depth increased for Node J-2033
  WARNING 02: maximum depth increased for Node J-2034
  WARNING 02: maximum depth increased for Node J-2035
  WARNING 02: maximum depth increased for Node J-2036
  WARNING 02: maximum depth increased for Node J-2037
  WARNING 02: maximum depth increased for Node J-2038
  WARNING 02: maximum depth increased for Node J-2039
  WARNING 02: maximum depth increased for Node J-2040
  WARNING 02: maximum depth increased for Node J-2041
  WARNING 02: maximum depth increased for Node J-2042
  WARNING 02: maximum depth increased for Node J-2043
  WARNING 02: maximum depth increased for Node J-2044
  WARNING 02: maximum depth increased for Node J-2045
  WARNING 02: maximum depth increased for Node J-2046
  WARNING 02: maximum depth increased for Node J-2047
  WARNING 02: maximum depth increased for Node J-2048
  WARNING 02: maximum depth increased for Node J-2049
  WARNING 02: maximum depth increased for Node J-2050
  WARNING 02: maximum depth increased for Node J-2051
  WARNING 02: maximum depth increased for Node J-2053
  WARNING 02: maximum depth increased for Node J-2054
  WARNING 02: maximum depth increased for Node J-2055
  WARNING 02: maximum depth increased for Node J-2056
  WARNING 02: maximum depth increased for Node J-2057
  WARNING 02: maximum depth increased for Node J-2058
  WARNING 02: maximum depth increased for Node J-2059
  WARNING 02: maximum depth increased for Node J-2060
  WARNING 02: maximum depth increased for Node J-2061
  WARNING 02: maximum depth increased for Node J-2062
  WARNING 02: maximum depth increased for Node J-2063
  WARNING 02: maximum depth increased for Node J-2064
  WARNING 02: maximum depth increased for Node J-2065
  WARNING 02: maximum depth increased for Node J-2066
  WARNING 02: maximum depth increased for Node J-2067
  WARNING 02: maximum depth increased for Node J-2068
  WARNING 02: maximum depth increased for Node J-2069
  WARNING 02: maximum depth increased for Node J-2070
  WARNING 02: maximum depth increased for Node J-2071
  WARNING 02: maximum depth increased for Node J-2072
  WARNING 02: maximum depth increased for Node J-2073
  WARNING 02: maximum depth increased for Node J-2074
  WARNING 02: maximum depth increased for Node J-2075
  WARNING 02: maximum depth increased for Node J-2076
  WARNING 02: maximum depth increased for Node J-2077
  WARNING 02: maximum depth increased for Node J-2078
  WARNING 02: maximum depth increased for Node J-2079
  WARNING 02: maximum depth increased for Node J-2080
  WARNING 02: maximum depth increased for Node J-2081
  WARNING 02: maximum depth increased for Node J-2082
  WARNING 02: maximum depth increased for Node J-2083
  WARNING 02: maximum depth increased for Node J-2084
  WARNING 02: maximum depth increased for Node J-2085
  WARNING 02: maximum depth increased for Node J-2086
  WARNING 02: maximum depth increased for Node J-2087
  WARNING 02: maximum depth increased for Node J-2088
  WARNING 02: maximum depth increased for Node J-2089
  WARNING 02: maximum depth increased for Node J-2090
  WARNING 02: maximum depth increased for Node J-2091
  WARNING 02: maximum depth increased for Node J-2092
  WARNING 02: maximum depth increased for Node J-2093
  WARNING 02: maximum depth increased for Node J-2094
  WARNING 02: maximum depth increased for Node J-2095
  WARNING 02: maximum depth increased for Node J-2096
  WARNING 02: maximum depth increased for Node J-2097
  WARNING 02: maximum depth increased for Node J-2098
  WARNING 02: maximum depth increased for Node J-2099
  WARNING 02: maximum depth increased for Node J-2100
  WARNING 02: maximum depth increased for Node J-2101
  WARNING 02: maximum depth increased for Node J-2102
  WARNING 02: maximum depth increased for Node J-2103
  WARNING 02: maximum depth increased for Node J-2104
  WARNING 02: maximum depth increased for Node J-2105
  WARNING 02: maximum depth increased for Node J-2106
  WARNING 02: maximum depth increased for Node J-2107
  WARNING 02: maximum depth increased for Node J-2108
  WARNING 02: maximum depth increased for Node J-2109
  WARNING 02: maximum depth increased for Node J-2110
  WARNING 02: maximum depth increased for Node J-2111
  WARNING 02: maximum depth increased for Node J-2112
  WARNING 02: maximum depth increased for Node J-2113
  WARNING 02: maximum depth increased for Node J-2114
  WARNING 02: maximum depth increased for Node J-2115
  WARNING 02: maximum depth increased for Node J-2116
  WARNING 02: maximum depth increased for Node J-2117
  WARNING 02: maximum depth increased for Node J-2118
  WARNING 02: maximum depth increased for Node J-2119
  WARNING 02: maximum depth increased for Node J-2120
  WARNING 02: maximum depth increased for Node J-2121
  WARNING 02: maximum depth increased for Node J-2122
  WARNING 02: maximum depth increased for Node J-2123
  WARNING 02: maximum depth increased for Node J-2124
  WARNING 02: maximum depth increased for Node J-2125
  WARNING 02: maximum depth increased for Node J-2126
  WARNING 02: maximum depth increased for Node J-2127
  WARNING 02: maximum depth increased for Node J-2128
  WARNING 02: maximum depth increased for Node J-2129
  WARNING 02: maximum depth increased for Node J-2130
  WARNING 02: maximum depth increased for Node J-2131
  WARNING 02: maximum depth increased for Node J-2132
  WARNING 02: maximum depth increased for Node J-2133
  WARNING 02: maximum depth increased for Node J-2134
  WARNING 02: maximum depth increased for Node J-2135
  WARNING 02: maximum depth increased for Node J-2136
  WARNING 02: maximum depth increased for Node J-2137
  WARNING 02: maximum depth increased for Node J-2138
  WARNING 02: maximum depth increased for Node J-2139
  WARNING 02: maximum depth increased for Node J-2140
  WARNING 02: maximum depth increased for Node J-2141
  WARNING 02: maximum depth increased for Node J-2142
  WARNING 02: maximum depth increased for Node J-2143
  WARNING 02: maximum depth increased for Node J-2144
  WARNING 02: maximum depth increased for Node J-2145
  WARNING 02: maximum depth increased for Node J-2146
  WARNING 02: maximum depth increased for Node J-2147
  WARNING 02: maximum depth increased for Node J-2148
  WARNING 02: maximum depth increased for Node J-2149
  WARNING 02: maximum depth increased for Node J-2150
  WARNING 02: maximum depth increased for Node J-2151
  WARNING 02: maximum depth increased for Node J-2152
  WARNING 02: maximum depth increased for Node J-2153
  WARNING 02: maximum depth increased for Node J-2154
  WARNING 02: maximum depth increased for Node J-2155
  WARNING 02: maximum depth increased for Node J-2156
  WARNING 02: maximum depth increased for Node J-2157
  WARNING 02: maximum depth increased for Node J-2158
  WARNING 02: maximum depth increased for Node J-2159
  WARNING 02: maximum depth increased for Node J-2160
  WARNING 02: maximum depth increased for Node J-2161
  WARNING 02: maximum depth increased for Node J-2162
  WARNING 02: maximum depth increased for Node J-2163
  WARNING 02: maximum depth increased for Node J-2164
  WARNING 02: maximum depth increased for Node J-2165
  WARNING 02: maximum depth increased for Node J-2166
  WARNING 02: maximum depth increased for Node J-2167
  WARNING 02: maximum depth increased for Node J-2168
  WARNING 02: maximum depth increased for Node J-2169
  WARNING 02: maximum depth increased for Node J-2170
  WARNING 02: maximum depth increased for Node J-2171
  WARNING 02: maximum depth increased for Node J-2172
  WARNING 02: maximum depth increased for Node J-2173
  WARNING 02: maximum depth increased for Node J-2174
  WARNING 02: maximum depth increased for Node J-2175
  WARNING 02: maximum depth increased for Node J-2176
  WARNING 02: maximum depth increased for Node J-2177
  WARNING 02: maximum depth increased for Node J-2178
  WARNING 02: maximum depth increased for Node J-2179
  WARNING 02: maximum depth increased for Node J-2180
  WARNING 02: maximum depth increased for Node J-2181
  WARNING 02: maximum depth increased for Node J-2182
  WARNING 02: maximum depth increased for Node J-2183
  WARNING 02: maximum depth increased for Node J-2184
  WARNING 02: maximum depth increased for Node J-2185
  WARNING 02: maximum depth increased for Node J-2186
  WARNING 02: maximum depth increased for Node J-2187
  WARNING 02: maximum depth increased for Node J-2188
  WARNING 02: maximum depth increased for Node J-2189
  WARNING 02: maximum depth increased for Node J-2190
  WARNING 02: maximum depth increased for Node J-2191
  WARNING 02: maximum depth increased for Node J-2192
  WARNING 02: maximum depth increased for Node J-2193
  WARNING 02: maximum depth increased for Node J-2194
  WARNING 02: maximum depth increased for Node J-2195
  WARNING 02: maximum depth increased for Node J-2196
  WARNING 02: maximum depth increased for Node J-2197
  WARNING 02: maximum depth increased for Node J-2198
  WARNING 02: maximum depth increased for Node J-2199
  WARNING 02: maximum depth increased for Node J-2200
  WARNING 02: maximum depth increased for Node J-2201
  WARNING 02: maximum depth increased for Node J-2202
  WARNING 02: maximum depth increased for Node J-2203
  WARNING 02: maximum depth increased for Node J-2204
  WARNING 02: maximum depth increased for Node J-2205
  WARNING 02: maximum depth increased for Node J-2206
  WARNING 02: maximum depth increased for Node J-2207
  WARNING 02: maximum depth increased for Node J-2208
  WARNING 02: maximum depth increased for Node J-2209
  WARNING 02: maximum depth increased for Node J-2210
  WARNING 02: maximum depth increased for Node J-2211
  WARNING 02: maximum depth increased for Node J-2212
  WARNING 02: maximum depth increased for Node J-2213
  WARNING 02: maximum depth increased for Node J-2214
  WARNING 02: maximum depth increased for Node J-2215
  WARNING 02: maximum depth increased for Node J-2216
  WARNING 02: maximum depth increased for Node J-2217
  WARNING 02: maximum depth increased for Node J-2218
  WARNING 02: maximum depth increased for Node J-2219
  WARNING 02: maximum depth increased for Node J-2220
  WARNING 02: maximum depth increased for Node J-2221
  WARNING 02: maximum depth increased for Node J-2222
  WARNING 02: maximum depth increased for Node J-2223
  WARNING 02: maximum depth increased for Node J-2224
  WARNING 02: maximum depth increased for Node J-2225
  WARNING 02: maximum depth increased for Node J-2226
  WARNING 02: maximum depth increased for Node J-2227
  WARNING 02: maximum depth increased for Node J-2228
  WARNING 02: maximum depth increased for Node J-2229
  WARNING 02: maximum depth increased for Node J-2230
  WARNING 02: maximum depth increased for Node J-2231
  WARNING 02: maximum depth increased for Node J-2232
  WARNING 02: maximum depth increased for Node J-2233
  WARNING 02: maximum depth increased for Node J-2234
  WARNING 02: maximum depth increased for Node J-2235
  WARNING 02: maximum depth increased for Node J-2236
  WARNING 02: maximum depth increased for Node J-2237
  WARNING 02: maximum depth increased for Node J-2238
  WARNING 02: maximum depth increased for Node J-2239
  WARNING 02: maximum depth increased for Node J-2240
  WARNING 02: maximum depth increased for Node J-2241
  WARNING 02: maximum depth increased for Node J-2242
  WARNING 02: maximum depth increased for Node J-2243
  WARNING 02: maximum depth increased for Node J-2244
  WARNING 02: maximum depth increased for Node J-2245
  WARNING 02: maximum depth increased for Node J-2246
  WARNING 02: maximum depth increased for Node J-2247
  WARNING 02: maximum depth increased for Node J-2248
  WARNING 02: maximum depth increased for Node J-2249
  WARNING 02: maximum depth increased for Node J-2250
  WARNING 02: maximum depth increased for Node J-2251
  WARNING 02: maximum depth increased for Node J-2252
  WARNING 02: maximum depth increased for Node J-2253
  WARNING 02: maximum depth increased for Node J-2254
  WARNING 02: maximum depth increased for Node J-2255
  WARNING 02: maximum depth increased for Node J-2256
  WARNING 02: maximum depth increased for Node J-2257
  WARNING 02: maximum depth increased for Node J-2258
  WARNING 02: maximum depth increased for Node J-2259
  WARNING 02: maximum depth increased for Node J-2260
  WARNING 02: maximum depth increased for Node J-2261
  WARNING 02: maximum depth increased for Node J-2262
  WARNING 02: maximum depth increased for Node J-2263
  WARNING 02: maximum depth increased for Node J-2264
  WARNING 02: maximum depth increased for Node J-2265
  WARNING 02: maximum depth increased for Node J-2266
  WARNING 02: maximum depth increased for Node J-2267
  WARNING 02: maximum depth increased for Node J-2268
  WARNING 02: maximum depth increased for Node J-2269
  WARNING 02: maximum depth increased for Node J-2270
  WARNING 02: maximum depth increased for Node J-2271
  WARNING 02: maximum depth increased for Node J-2272
  WARNING 02: maximum depth increased for Node J-2273
  WARNING 02: maximum depth increased for Node J-2274
  WARNING 02: maximum depth increased for Node J-2275
  WARNING 02: maximum depth increased for Node J-2276
  WARNING 02: maximum depth increased for Node J-2277
  WARNING 02: maximum depth increased for Node J-2278
  WARNING 02: maximum depth increased for Node J-2279
  WARNING 02: maximum depth increased for Node J-2280
  WARNING 02: maximum depth increased for Node J-2281
  WARNING 02: maximum depth increased for Node J-2282
  WARNING 02: maximum depth increased for Node J-2283
  WARNING 02: maximum depth increased for Node J-2284
  WARNING 02: maximum depth increased for Node J-2285
  WARNING 02: maximum depth increased for Node J-2286
  WARNING 02: maximum depth increased for Node J-2287
  WARNING 02: maximum depth increased for Node J-2288
  WARNING 02: maximum depth increased for Node J-2289
  WARNING 02: maximum depth increased for Node J-2290
  WARNING 02: maximum depth increased for Node J-2291
  WARNING 02: maximum depth increased for Node J-2292
  WARNING 02: maximum depth increased for Node J-2293
  WARNING 02: maximum depth increased for Node J-2294
  WARNING 02: maximum depth increased for Node J-2295
  WARNING 02: maximum depth increased for Node J-2296
  WARNING 02: maximum depth increased for Node J-2297
  WARNING 02: maximum depth increased for Node J-2298
  WARNING 02: maximum depth increased for Node J-2299
  WARNING 02: maximum depth increased for Node J-2300
  WARNING 02: maximum depth increased for Node J-2301
  WARNING 02: maximum depth increased for Node J-2302
  WARNING 02: maximum depth increased for Node J-2303
  WARNING 02: maximum depth increased for Node J-2304
  WARNING 02: maximum depth increased for Node J-2305
  WARNING 02: maximum depth increased for Node J-2306
  WARNING 02: maximum depth increased for Node J-2307
  WARNING 02: maximum depth increased for Node J-2308
  WARNING 02: maximum depth increased for Node J-2309
  WARNING 02: maximum depth increased for Node J-2310
  WARNING 02: maximum depth increased for Node J-2311
  WARNING 02: maximum depth increased for Node J-2312
  WARNING 02: maximum depth increased for Node J-2314
  WARNING 02: maximum depth increased for Node J-2316
  WARNING 02: maximum depth increased for Node J-2319
  WARNING 02: maximum depth increased for Node J-2320
  WARNING 02: maximum depth increased for Node J-2324
  WARNING 02: maximum depth increased for Node J-2325
  WARNING 02: maximum depth increased for Node J-2327
  WARNING 02: maximum depth increased for Node J-2328
  WARNING 02: maximum depth increased for Node J-2330
  WARNING 02: maximum depth increased for Node J-2332
  WARNING 02: maximum depth increased for Node J-2335
  WARNING 02: maximum depth increased for Node J-2336
  WARNING 02: maximum depth increased for Node J-2338
  WARNING 02: maximum depth increased for Node J-2341
  WARNING 02: maximum depth increased for Node J-2342
  
  *************
  Element Count
  *************
  Number of rain gages ...... 7
  Number of subcatchments ... 619
  Number of nodes ........... 1223
  Number of links ........... 1435
  Number of pollutants ...... 0
  Number of land uses ....... 0
  
  
  ****************
  Raingage Summary
  ****************
                                                      Data       Recording
  Name                 Data Source                    Type       Interval 
  ------------------------------------------------------------------------
  BW1rain_rev1         C:\Users\edt489\Box Sync\SWMMCALPY1.0\Brentwood Files\Brentwood_Uncalibrated_4hourSpinUp\For Eddie\BW1rain_120210-141231_rev1_Clipped.txt
  BW2rain_rev1         C:\Users\edt489\Box Sync\SWMMCALPY1.0\Brentwood Files\Brentwood_Uncalibrated_4hourSpinUp\For Eddie\BW2rain_120308-141231_rev1_Clipped.txt
  COA_100-yr_Depth_Gage COA_100-yr_Depth               VOLUME       5 min.
  COA_10-yr_Depth_Gage COA_10-yr_Depth                VOLUME       5 min.
  COA_25-yr_Depth_Gage COA_25-yr_Depth                VOLUME       5 min.
  COA_2-yr_Depth_Gage  COA_2-yr_Depth                 VOLUME       5 min.
  COA_5-yr_Depth_Gage  COA_5-yr_Depth                 VOLUME       5 min.
  
  
  ********************
  Subcatchment Summary
  ********************
  Name                       Area     Width   %Imperv    %Slope Rain Gage            Outlet              
  -----------------------------------------------------------------------------------------------------------
  S-1001                     1.69     25.78     90.00    3.1440 BW1rain_rev1         J-1517              
  S-1002                     0.30    131.87     90.00    3.2250 BW1rain_rev1         J-1152              
  S-1003                     0.23    100.84     90.00    3.0310 BW1rain_rev1         J-1007              
  S-1004                     0.21     89.66     90.00    4.0190 BW1rain_rev1         J-1500              
  S-1005                     0.20     85.57     90.00    3.4010 BW1rain_rev1         J-1068              
  S-1006                     0.17     75.23     90.00    4.4360 BW1rain_rev1         J-1077              
  S-1007                     0.14     59.77     90.00    4.1550 BW1rain_rev1         J-1117              
  S-1008                     0.25    107.47     90.00    3.0740 BW1rain_rev1         J-1138              
  S-1009                     0.25    107.83     90.00    4.3540 BW1rain_rev1         J-1178              
  S-1010                     0.21     90.47     90.00    4.4900 BW1rain_rev1         J-1209              
  S-1011                     1.01    441.34     90.00    2.5940 BW1rain_rev1         J-1019              
  S-1012                     0.17     74.07     90.00    2.5880 BW1rain_rev1         J-1485              
  S-1013                     0.24    102.76     90.00    5.8520 BW1rain_rev1         J-1738              
  S-1014                     0.25    110.66     90.00    3.4750 BW1rain_rev1         J-1495              
  S-1015                     0.33    144.89     90.00    4.7020 BW1rain_rev1         J-1431              
  S-1016                     0.25    110.22     90.00    5.6970 BW1rain_rev1         J-1461              
  S-1017                     0.18     78.15     90.00    5.7570 BW1rain_rev1         J-1336              
  S-1018                     0.21     90.84     90.00    2.7070 BW1rain_rev1         J-1620              
  S-1019                     0.13     57.20     90.00    3.2430 BW1rain_rev1         J-1701              
  S-1020                     0.21     89.41     90.00    4.0850 BW1rain_rev1         J-1241              
  S-1021                     0.40    173.93     90.00    3.1170 BW1rain_rev1         J-1073              
  S-1022                     0.19     82.66     90.00    7.1340 BW1rain_rev1         J-1182              
  S-1023                     0.17     73.85     90.00    5.5930 BW1rain_rev1         J-1206              
  S-1024                     2.11     31.74     90.00    2.2080 BW1rain_rev1         S-1392              
  S-1025                     0.87     20.27     90.00    2.9140 BW1rain_rev1         S-1454              
  S-1026                     0.33     14.53     90.00    2.1050 BW1rain_rev1         S-1227              
  S-1027                     0.35      9.43     90.00    2.1050 BW1rain_rev1         S-1026              
  S-1028                     0.38     11.23     90.00    2.1050 BW1rain_rev1         S-1026              
  S-1029                     0.72     13.68     90.00    4.0400 BW1rain_rev1         S-1407              
  S-1030                     0.18      7.16     90.00    4.0400 BW1rain_rev1         S-1234              
  S-1031                     0.81     18.21     90.00    2.6740 BW1rain_rev1         S-1463              
  S-1032                     1.30     21.73     90.00    3.0930 BW1rain_rev1         S-1466              
  S-1033                     1.84     29.61     90.00    4.3230 BW1rain_rev1         J-1832              
  S-1034                     1.41     19.64     90.00    1.9720 BW1rain_rev1         S-1288              
  S-1035                     2.59     24.60     90.00    1.9550 BW1rain_rev1         S-1473              
  S-1036                     1.75     20.01     90.00    1.9600 BW1rain_rev1         S-1303              
  S-1037                     1.94     20.72     90.00    1.9910 BW1rain_rev1         S-1309              
  S-1038                     0.80     33.99     90.00    6.4810 BW1rain_rev1         J-1867              
  S-1039                     1.93     35.14     90.00    3.7400 BW1rain_rev1         J-1860              
  S-1040                     2.39     21.58     90.00    1.6140 BW1rain_rev1         S-1310              
  S-1041                     2.51     21.86     90.00    1.8740 BW1rain_rev1         S-1132              
  S-1042                     1.49     32.30     90.00    3.8800 BW1rain_rev1         J-1852              
  S-1043                     1.36     21.62     90.00    2.0350 BW1rain_rev1         S-1020              
  S-1044                     1.37     30.08     90.00    2.9310 BW1rain_rev1         J-1847              
  S-1045                     1.47     26.51     90.00    3.1650 BW1rain_rev1         J-1843              
  S-1046                     1.28     26.73     90.00    2.6100 BW1rain_rev1         S-1092              
  S-1047                     1.02     20.17     90.00    5.2960 BW1rain_rev1         J-1837              
  S-1048                     2.09     26.65     90.00    4.2310 BW1rain_rev1         J-1831              
  S-1049                     7.11     66.75     90.00    4.4230 BW1rain_rev1         S-1412              
  S-1050                     2.23     39.31     90.00    3.9330 BW1rain_rev1         S-1203              
  S-1051                     1.85     24.48     90.00    2.1750 BW1rain_rev1         S-1437              
  S-1052                     1.28     29.85     90.00    2.0920 BW1rain_rev1         S-1147              
  S-1053                     2.57     35.07     90.00    2.1490 BW1rain_rev1         S-1014              
  S-1054                     1.52     29.22     90.00    2.3510 BW1rain_rev1         S-1226              
  S-1055                     1.77     27.06     90.00    2.8670 BW1rain_rev1         S-1406              
  S-1056                     1.35     31.55     90.00    1.6570 BW1rain_rev1         S-1078              
  S-1057                     1.54     25.76     90.00    1.8530 BW1rain_rev1         S-1312              
  S-1058                     2.04     26.69     90.00    1.7980 BW1rain_rev1         S-1314              
  S-1059                     1.55     30.65     90.00    3.0220 BW1rain_rev1         S-1108              
  S-1060                     0.34     16.36     90.00    3.4100 BW1rain_rev1         S-1102              
  S-1061                     1.47     34.20     90.00    3.1830 BW1rain_rev1         S-1322              
  S-1062                     0.98     23.47     90.00    2.9760 BW1rain_rev1         S-1115              
  S-1063                     1.57     38.14     90.00    2.1330 BW1rain_rev1         S-1335              
  S-1064                     1.13     52.77     90.00    2.4290 BW1rain_rev1         S-1066              
  S-1065                     0.55     19.25     90.00    1.8460 BW1rain_rev1         S-1258              
  S-1066                     1.01     32.30     90.00    1.5480 BW1rain_rev1         S-1153              
  S-1067                     1.47     33.81     90.00    2.1470 BW1rain_rev1         S-1097              
  S-1068                     0.66     19.24     90.00    2.0220 BW1rain_rev1         S-1340              
  S-1069                     1.20     15.97     90.00    4.4590 BW1rain_rev1         J-1815              
  S-1070                     0.63     25.14     90.00    8.4790 BW1rain_rev1         J-1849              
  S-1071                     2.21     25.40     90.00    2.9870 BW1rain_rev1         J-1877              
  S-1072                     0.68     17.09     90.00    4.6190 BW1rain_rev1         J-1829              
  S-1073                     0.11     47.78     90.00    4.4510 BW1rain_rev1         J-1676              
  S-1074                     0.25    107.38     90.00    5.4620 BW1rain_rev1         J-1307              
  S-1075                     1.75     35.89     90.00    2.5550 BW1rain_rev1         S-1329              
  S-1076                     1.97     19.30     90.00    1.7020 BW1rain_rev1         S-1346              
  S-1077                     1.32     34.02     90.00    2.3620 BW1rain_rev1         S-1386              
  S-1078                     0.15     67.44     90.00    5.2850 BW1rain_rev1         J-1135              
  S-1079                     0.15     65.65     90.00    3.1190 BW1rain_rev1         J-1471              
  S-1080                     0.13     56.45     90.00    2.7390 BW1rain_rev1         J-1069              
  S-1081                     0.12     51.06     90.00    2.2670 BW1rain_rev1         J-1078              
  S-1082                     0.15     63.35     90.00    4.0750 BW1rain_rev1         J-1119              
  S-1083                     0.14     63.18     90.00    4.3020 BW1rain_rev1         J-1134              
  S-1084                     0.22     96.97     90.00    3.8640 BW1rain_rev1         J-1139              
  S-1085                     0.19     81.38     90.00    3.8740 BW1rain_rev1         J-1181              
  S-1086                     0.24    105.66     90.00    2.9780 BW1rain_rev1         J-1177              
  S-1087                     0.18     76.31     90.00    4.5460 BW1rain_rev1         J-1210              
  S-1088                     0.17     75.24     90.00    4.7300 BW1rain_rev1         J-1205              
  S-1089                     0.20     85.36     90.00    4.0900 BW1rain_rev1         J-1242              
  S-1090                     0.12     52.48     90.00    2.0980 BW1rain_rev1         J-1551              
  S-1091                     0.26    112.55     90.00    2.6730 BW1rain_rev1         J-1225              
  S-1092                     0.16     68.53     90.00    5.7840 BW1rain_rev1         J-1290              
  S-1093                     0.17     75.16     90.00    2.9780 BW1rain_rev1         J-1301              
  S-1094                     0.11     46.15     90.00    4.8850 BW1rain_rev1         J-1585              
  S-1095                     0.13     54.99     90.00    3.6930 BW1rain_rev1         J-1664              
  S-1096                     0.13     57.50     90.00    4.4590 BW1rain_rev1         J-1610              
  S-1097                     0.17     72.57     90.00    5.0600 BW1rain_rev1         J-1639              
  S-1098                     0.39    170.19     90.00    4.4960 BW1rain_rev1         J-1450              
  S-1099                     0.24    102.72     90.00    2.9300 BW1rain_rev1         J-1427              
  S-1100                     0.30    131.13     90.00    2.9790 BW1rain_rev1         S-1403              
  S-1101                     0.14     61.10     90.00    3.3160 BW1rain_rev1         J-1291              
  S-1102                     0.08     36.46     90.00    8.6550 BW1rain_rev1         J-1269              
  S-1103                     0.37     12.30     90.00    2.5440 BW1rain_rev1         J-1846              
  S-1104                     0.27    119.36     90.00    5.8340 BW1rain_rev1         J-1263              
  S-1105                     0.28    121.95     90.00    5.6760 BW1rain_rev1         J-1124              
  S-1106                     0.30    129.63     90.00    4.8290 BW1rain_rev1         J-1127              
  S-1107                     0.26    113.12     90.00    4.0860 BW1rain_rev1         J-1192              
  S-1108                     0.13     55.72     90.00    5.8790 BW1rain_rev1         J-1249              
  S-1109                     0.15     66.97     90.00    4.2730 BW1rain_rev1         J-1250              
  S-1110                     0.28    123.36     90.00    4.7760 BW1rain_rev1         J-1198              
  S-1111                     0.08     33.39     90.00    4.3710 BW1rain_rev1         J-1268              
  S-1112                     0.34    149.51     90.00    6.5120 BW1rain_rev1         J-1259              
  S-1113                     0.17     72.91     90.00    7.2800 BW1rain_rev1         J-1289              
  S-1114                     0.14     62.29     90.00    3.4590 BW1rain_rev1         J-1288              
  S-1115                     0.12     53.23     90.00    5.3630 BW1rain_rev1         J-1326              
  S-1116                     0.29    126.64     90.00    4.6730 BW1rain_rev1         J-1267              
  S-1117                     0.12     50.87     90.00    2.7290 BW1rain_rev1         J-1323              
  S-1118                     0.13     55.31     90.00    7.6960 BW1rain_rev1         J-1662              
  S-1119                     0.15     67.20     90.00    1.9910 BW1rain_rev1         J-1669              
  S-1120                     0.30    131.92     90.00    4.9500 BW1rain_rev1         J-1319              
  S-1121                     0.18     76.89     90.00    5.7570 BW1rain_rev1         J-1668              
  S-1122                     0.16     68.76     90.00    5.2040 BW1rain_rev1         J-1655              
  S-1123                     0.16     68.12     90.00    4.8560 BW1rain_rev1         J-1673              
  S-1124                     0.20     87.76     90.00    5.5210 BW1rain_rev1         J-1672              
  S-1125                     0.33    145.83     90.00    5.2060 BW1rain_rev1         J-1273              
  S-1126                     0.11     47.74     90.00    4.7300 BW1rain_rev1         J-1680              
  S-1127                     0.29    126.55     90.00    4.3020 BW1rain_rev1         J-1312              
  S-1128                     0.18     78.78     90.00    3.7960 BW1rain_rev1         J-1574              
  S-1129                     0.17     75.35     90.00    2.6710 BW1rain_rev1         J-1754              
  S-1130                     0.14     59.89     90.00    3.0240 BW1rain_rev1         J-1302              
  S-1131                     0.17     74.11     90.00    1.3750 BW1rain_rev1         J-1751              
[...]
              0.3450     0.4025     0.4600     0.5342     0.6285 
              0.7195     0.8075     0.8927     0.9754     1.0559 
              1.1342     1.2105     1.2852     1.3581     1.4296 
              1.4996     1.5683     1.6358     1.7022     1.7675 
              1.8318     1.8952     1.9394     1.9617     1.9656 
              1.8895     1.5272     1.1156     0.8783     0.7951 
              0.7584     0.6795     0.6723     0.6810     0.7003 
              0.7062     0.7335     0.7662     0.7978     0.8275 
              0.8568     0.8734     0.9132     0.9564     1.0000 
  Width: 
              0.0019     0.0039     0.0058     0.0077     0.0097 
              0.0116     0.0135     0.0155     0.0168     0.0172 
              0.0176     0.0181     0.0185     0.0189     0.0194 
              0.0198     0.0202     0.0206     0.0211     0.0215 
              0.0219     0.0224     0.0228     0.0232     0.0237 
              0.0241     0.0245     0.0252     0.0264     0.0398 
              0.0736     0.1744     0.2522     0.3000     0.3457 
              0.4309     0.5782     0.6240     0.6696     0.6912 
              0.7517     0.7789     0.8027     0.8300     0.8578 
              0.8865     0.9485     0.9702     0.9828     1.0000 

  Transect 7
  Area:  
              0.0001     0.0006     0.0014     0.0031     0.0055 
              0.0090     0.0132     0.0180     0.0232     0.0288 
              0.0346     0.0406     0.0468     0.0532     0.0602 
              0.0688     0.0781     0.0880     0.0984     0.1093 
              0.1211     0.1349     0.1501     0.1674     0.1877 
              0.2108     0.2369     0.2641     0.2918     0.3202 
              0.3494     0.3790     0.4090     0.4394     0.4701 
              0.5012     0.5325     0.5646     0.5977     0.6320 
              0.6669     0.7023     0.7382     0.7746     0.8115 
              0.8487     0.8862     0.9239     0.9618     1.0000 
  Hrad:  
              0.0166     0.0272     0.0424     0.0467     0.0690 
              0.0823     0.1070     0.1302     0.1598     0.1884 
              0.2176     0.2471     0.2758     0.3053     0.3294 
              0.3455     0.3597     0.3766     0.3945     0.4116 
              0.4255     0.4292     0.4284     0.4334     0.4264 
              0.4312     0.4380     0.4568     0.4775     0.4973 
              0.4567     0.4869     0.5168     0.5465     0.5763 
              0.6067     0.6368     0.6658     0.6925     0.7113 
              0.7374     0.7632     0.7888     0.8141     0.8440 
              0.8752     0.9065     0.9377     0.9688     1.0000 
  Width: 
              0.0053     0.0180     0.0282     0.0575     0.0697 
              0.1034     0.1168     0.1327     0.1404     0.1481 
              0.1545     0.1598     0.1654     0.1704     0.2084 
              0.2359     0.2508     0.2646     0.2788     0.2939 
              0.3350     0.3769     0.4260     0.4839     0.5843 
              0.6264     0.7006     0.7177     0.7330     0.7506 
              0.7705     0.7797     0.7890     0.7985     0.8074 
              0.8150     0.8244     0.8493     0.8816     0.9058 
              0.9188     0.9317     0.9447     0.9581     0.9687 
              0.9762     0.9824     0.9885     0.9946     1.0000 

  Transect 707_HC
  Area:  
              0.0006     0.0022     0.0044     0.0073     0.0124 
              0.0198     0.0287     0.0395     0.0529     0.0671 
              0.0818     0.0966     0.1116     0.1270     0.1426 
              0.1586     0.1753     0.1928     0.2108     0.2294 
              0.2493     0.2697     0.2908     0.3123     0.3340 
              0.3561     0.3785     0.4014     0.4248     0.4488 
              0.4731     0.4979     0.5229     0.5482     0.5738 
              0.5997     0.6259     0.6526     0.6798     0.7075 
              0.7356     0.7641     0.7930     0.8220     0.8512 
              0.8805     0.9100     0.9397     0.9697     1.0000 
  Hrad:  
              0.0167     0.0349     0.0558     0.0683     0.0748 
              0.0792     0.0997     0.1173     0.1189     0.1460 
              0.1732     0.2016     0.2299     0.2576     0.2840 
              0.3097     0.3260     0.3493     0.3722     0.3878 
              0.3859     0.4073     0.4297     0.4533     0.4770 
              0.5013     0.5191     0.5360     0.5530     0.5716 
              0.5921     0.6138     0.6380     0.6614     0.6847 
              0.7073     0.7266     0.7458     0.7650     0.7841 
              0.8032     0.8235     0.8465     0.8717     0.8969 
              0.9221     0.9417     0.9628     0.9839     1.0000 
  Width: 
              0.0387     0.0632     0.0789     0.1236     0.2074 
              0.2719     0.3159     0.4095     0.4613     0.4759 
              0.4867     0.4910     0.5001     0.5091     0.5202 
              0.5354     0.5679     0.5834     0.6002     0.6328 
              0.6647     0.6848     0.7004     0.7110     0.7211 
              0.7294     0.7455     0.7628     0.7800     0.7954 
              0.8083     0.8196     0.8280     0.8373     0.8467 
              0.8568     0.8719     0.8870     0.9021     0.9173 
              0.9324     0.9452     0.9531     0.9575     0.9618 
              0.9661     0.9755     0.9837     0.9918     1.0000 

  Transect 743
  Area:  
              0.0005     0.0013     0.0023     0.0033     0.0043 
              0.0054     0.0066     0.0077     0.0089     0.0101 
              0.0114     0.0127     0.0140     0.0153     0.0167 
              0.0181     0.0196     0.0210     0.0225     0.0241 
              0.0257     0.0273     0.0289     0.0307     0.0329 
              0.0355     0.0385     0.0420     0.0465     0.0532 
              0.0669     0.0927     0.1250     0.1593     0.1943 
              0.2306     0.2690     0.3107     0.3565     0.4054 
              0.4561     0.5087     0.5639     0.6210     0.6795 
              0.7397     0.8021     0.8668     0.9330     1.0000 
  Hrad:  
              0.1610     0.3816     0.5885     0.8221     1.0459 
              1.2608     1.4678     1.6677     1.8612     2.0490 
              2.2314     2.4091     2.5824     2.7517     2.9173 
              3.0796     3.2387     3.3950     3.5485     3.6996 
              3.8484     3.9951     4.1398     4.2895     4.3721 
              4.3902     4.3583     4.2989     4.1718     3.8443 
              3.0902     2.1874     1.6480     1.3634     1.2186 
              1.1316     1.0623     1.0165     0.9551     0.9315 
              0.9232     0.9095     0.9050     0.9113     0.9229 
              0.9326     0.9423     0.9544     0.9755     1.0000 
  Width: 
              0.0114     0.0134     0.0150     0.0155     0.0160 
              0.0165     0.0169     0.0174     0.0179     0.0184 
              0.0188     0.0193     0.0198     0.0203     0.0207 
              0.0212     0.0217     0.0222     0.0226     0.0231 
              0.0236     0.0241     0.0245     0.0295     0.0358 
              0.0420     0.0482     0.0574     0.0754     0.1399 
              0.3076     0.4519     0.4986     0.5158     0.5273 
              0.5504     0.6016     0.6396     0.7036     0.7418 
              0.7627     0.8022     0.8358     0.8592     0.8802 
              0.9104     0.9445     0.9766     0.9903     1.0000 

  Transect 792
  Area:  
              0.0003     0.0009     0.0015     0.0021     0.0028 
              0.0035     0.0043     0.0052     0.0061     0.0072 
              0.0082     0.0093     0.0104     0.0116     0.0128 
              0.0140     0.0152     0.0165     0.0178     0.0191 
              0.0205     0.0219     0.0234     0.0248     0.0263 
              0.0279     0.0295     0.0311     0.0329     0.0353 
              0.0434     0.0556     0.0722     0.0979     0.1305 
              0.1683     0.2142     0.2638     0.3153     0.3682 
              0.4227     0.4817     0.5437     0.6063     0.6695 
              0.7334     0.7982     0.8641     0.9313     1.0000 
  Hrad:  
              0.3421     0.7087     1.0934     1.4462     1.7734 
              2.0174     2.2034     2.3939     2.5937     2.9020 
              3.1984     3.4841     3.7603     4.0282     4.2884 
              4.5419     4.7891     5.0308     5.2674     5.4993 
              5.7270     5.9508     6.1710     6.3879     6.6017 
              6.8127     6.8679     6.8655     6.8867     6.7995 
              5.5090     4.2814     3.2878     2.3883     1.8205 
              1.4909     1.2620     1.1276     1.0514     1.0066 
              0.9795     0.9474     0.9390     0.9402     0.9480 
              0.9595     0.9716     0.9855     0.9993     1.0000 
  Width: 
              0.0067     0.0082     0.0087     0.0091     0.0096 
              0.0105     0.0117     0.0130     0.0142     0.0146 
              0.0151     0.0155     0.0160     0.0164     0.0169 
              0.0173     0.0178     0.0182     0.0187     0.0191 
              0.0196     0.0200     0.0205     0.0209     0.0214 
              0.0218     0.0230     0.0246     0.0262     0.0704 
              0.1445     0.2026     0.2778     0.4291     0.4906 
              0.5816     0.6826     0.7138     0.7349     0.7562 
              0.7825     0.8682     0.8769     0.8856     0.8943 
              0.9049     0.9201     0.9365     0.9559     1.0000 

  Transect 845
  Area:  
              0.0001     0.0005     0.0009     0.0013     0.0019 
              0.0025     0.0032     0.0040     0.0048     0.0057 
              0.0066     0.0077     0.0088     0.0099     0.0112 
              0.0125     0.0138     0.0153     0.0168     0.0184 
              0.0200     0.0217     0.0235     0.0253     0.0272 
              0.0292     0.0312     0.0333     0.0368     0.0450 
              0.0563     0.0717     0.0976     0.1310     0.1679 
              0.2077     0.2506     0.2967     0.3452     0.3960 
              0.4499     0.5055     0.5624     0.6206     0.6800 
              0.7407     0.8029     0.8670     0.9328     1.0000 
  Hrad:  
              0.2059     0.5200     0.7991     1.0523     1.2897 
              1.5166     1.7364     1.9509     2.1697     2.3852 
              2.5971     2.8060     3.0125     3.2170     3.4197 
              3.6211     3.8213     4.0208     4.2207     4.4197 
              4.6177     4.8129     5.0076     5.2019     5.3959 
              5.5895     5.7828     5.9143     5.6888     4.7317 
              3.8467     3.1057     2.2996     1.7724     1.4831 
              1.3036     1.1821     1.0995     1.0449     1.0064 
              0.9786     0.9635     0.9570     0.9562     0.9597 
              0.9662     0.9704     0.9762     0.9836     1.0000 
  Width: 
              0.0041     0.0054     0.0065     0.0075     0.0086 
              0.0097     0.0107     0.0118     0.0128     0.0138 
              0.0148     0.0158     0.0168     0.0178     0.0188 
              0.0197     0.0207     0.0217     0.0227     0.0237 
              0.0247     0.0257     0.0267     0.0277     0.0286 
              0.0296     0.0306     0.0320     0.0936     0.1462 
              0.1863     0.3220     0.4595     0.5220     0.5677 
              0.6108     0.6606     0.7005     0.7346     0.7737 
              0.8117     0.8333     0.8519     0.8705     0.8890 
              0.9076     0.9344     0.9608     0.9872     1.0000 

  Transect GroverBW2
  Area:  
              0.0053     0.0112     0.0177     0.0248     0.0325 
              0.0408     0.0497     0.0592     0.0693     0.0800 
              0.0913     0.1032     0.1157     0.1288     0.1425 
              0.1568     0.1717     0.1872     0.2033     0.2200 
              0.2373     0.2552     0.2737     0.2928     0.3125 
              0.3328     0.3537     0.3752     0.3973     0.4200 
              0.4433     0.4672     0.4917     0.5168     0.5425 
              0.5688     0.5957     0.6232     0.6513     0.6800 
              0.7093     0.7392     0.7697     0.8008     0.8325 
              0.8648     0.8977     0.9312     0.9653     1.0000 
  Hrad:  
              0.0345     0.0655     0.0940     0.1206     0.1458 
              0.1699     0.1931     0.2155     0.2374     0.2587 
              0.2796     0.3002     0.3205     0.3405     0.3602 
              0.3798     0.3992     0.4184     0.4375     0.4565 
              0.4754     0.4941     0.5128     0.5314     0.5499 
              0.5684     0.5868     0.6051     0.6234     0.6416 
              0.6598     0.6779     0.6960     0.7141     0.7322 
              0.7502     0.7682     0.7861     0.8040     0.8219 
              0.8398     0.8577     0.8755     0.8934     0.9112 
              0.9290     0.9467     0.9645     0.9823     1.0000 
  Width: 
              0.1600     0.1771     0.1943     0.2114     0.2286 
              0.2457     0.2629     0.2800     0.2971     0.3143 
              0.3314     0.3486     0.3657     0.3829     0.4000 
              0.4171     0.4343     0.4514     0.4686     0.4857 
              0.5029     0.5200     0.5371     0.5543     0.5714 
              0.5886     0.6057     0.6229     0.6400     0.6571 
              0.6743     0.6914     0.7086     0.7257     0.7429 
              0.7600     0.7771     0.7943     0.8114     0.8286 
              0.8457     0.8629     0.8800     0.8971     0.9143 
              0.9314     0.9486     0.9657     0.9829     1.0000 

  Transect GutterConnect
  Area:  
              0.0004     0.0016     0.0036     0.0064     0.0100 
              0.0144     0.0196     0.0256     0.0324     0.0400 
              0.0484     0.0576     0.0676     0.0784     0.0900 
              0.1024     0.1156     0.1296     0.1444     0.1600 
              0.1764     0.1936     0.2116     0.2304     0.2500 
              0.2704     0.2916     0.3136     0.3364     0.3600 
              0.3844     0.4096     0.4356     0.4624     0.4900 
              0.5184     0.5476     0.5776     0.6084     0.6400 
              0.6724     0.7056     0.7396     0.7744     0.8100 
              0.8464     0.8836     0.9216     0.9604     1.0000 
  Hrad:  
              0.0200     0.0400     0.0600     0.0800     0.1000 
              0.1200     0.1400     0.1600     0.1800     0.2000 
              0.2200     0.2400     0.2600     0.2800     0.3000 
              0.3200     0.3400     0.3600     0.3800     0.4000 
              0.4200     0.4400     0.4600     0.4800     0.5000 
              0.5200     0.5400     0.5600     0.5800     0.6000 
              0.6200     0.6400     0.6600     0.6800     0.7000 
              0.7200     0.7400     0.7600     0.7800     0.8000 
              0.8200     0.8400     0.8600     0.8800     0.9000 
              0.9200     0.9400     0.9600     0.9800     1.0000 
  Width: 
              0.0200     0.0400     0.0600     0.0800     0.1000 
              0.1200     0.1400     0.1600     0.1800     0.2000 
              0.2200     0.2400     0.2600     0.2800     0.3000 
              0.3200     0.3400     0.3600     0.3800     0.4000 
              0.4200     0.4400     0.4600     0.4800     0.5000 
              0.5200     0.5400     0.5600     0.5800     0.6000 
              0.6200     0.6400     0.6600     0.6800     0.7000 
              0.7200     0.7400     0.7600     0.7800     0.8000 
              0.8200     0.8400     0.8600     0.8800     0.9000 
              0.9200     0.9400     0.9600     0.9800     1.0000 

  Transect Street
  Area:  
              0.0002     0.0010     0.0022     0.0040     0.0062 
              0.0089     0.0122     0.0159     0.0201     0.0248 
              0.0301     0.0358     0.0420     0.0487     0.0559 
              0.0634     0.0709     0.0796     0.0898     0.1014 
              0.1146     0.1293     0.1454     0.1631     0.1822 
              0.2028     0.2249     0.2485     0.2736     0.3002 
              0.3283     0.3578     0.3889     0.4212     0.4540 
              0.4873     0.5210     0.5552     0.5898     0.6248 
              0.6603     0.6963     0.7327     0.7695     0.8068 
              0.8446     0.8828     0.9214     0.9605     1.0000 
  Hrad:  
              0.0197     0.0393     0.0590     0.0787     0.0983 
              0.1180     0.1377     0.1573     0.1770     0.1967 
              0.2163     0.2360     0.2557     0.2753     0.2950 
              0.3330     0.3490     0.3313     0.3236     0.3225 
              0.3259     0.3325     0.3414     0.3521     0.3642 
              0.3774     0.3915     0.4063     0.4217     0.4376 
              0.4539     0.4706     0.4877     0.5153     0.5478 
              0.5799     0.6117     0.6432     0.6744     0.7053 
              0.7359     0.7662     0.7963     0.8261     0.8556 
              0.8850     0.9140     0.9429     0.9716     1.0000 
  Width: 
              0.0125     0.0250     0.0375     0.0500     0.0625 
              0.0750     0.0875     0.1000     0.1125     0.1250 
              0.1375     0.1500     0.1625     0.1750     0.1875 
              0.1875     0.2000     0.2375     0.2750     0.3125 
              0.3500     0.3875     0.4250     0.4625     0.5000 
              0.5375     0.5750     0.6125     0.6500     0.6875 
              0.7250     0.7625     0.8000     0.8200     0.8313 
              0.8425     0.8538     0.8650     0.8763     0.8875 
              0.8988     0.9100     0.9213     0.9325     0.9438 
              0.9550     0.9663     0.9775     0.9888     1.0000 

  Transect Street_wide
  Area:  
              0.0003     0.0011     0.0024     0.0043     0.0068 
              0.0098     0.0133     0.0174     0.0220     0.0272 
              0.0329     0.0391     0.0459     0.0533     0.0611 
              0.0696     0.0786     0.0888     0.1003     0.1132 
              0.1275     0.1431     0.1601     0.1784     0.1981 
              0.2192     0.2416     0.2654     0.2905     0.3170 
              0.3448     0.3740     0.4046     0.4363     0.4685 
              0.5011     0.5341     0.5675     0.6013     0.6355 
              0.6701     0.7051     0.7406     0.7764     0.8126 
              0.8493     0.8864     0.9238     0.9617     1.0000 
  Hrad:  
              0.0191     0.0382     0.0573     0.0764     0.0955 
              0.1146     0.1337     0.1528     0.1719     0.1911 
              0.2102     0.2293     0.2484     0.2675     0.2866 
              0.3057     0.3159     0.3128     0.3147     0.3200 
              0.3279     0.3376     0.3489     0.3613     0.3746 
              0.3887     0.4034     0.4186     0.4342     0.4503 
              0.4666     0.4832     0.5001     0.5270     0.5586 
              0.5899     0.6209     0.6515     0.6819     0.7121 
              0.7419     0.7715     0.8008     0.8299     0.8588 
              0.8875     0.9159     0.9441     0.9722     1.0000 
  Width: 
              0.0141     0.0282     0.0424     0.0565     0.0706 
              0.0847     0.0988     0.1129     0.1271     0.1412 
              0.1553     0.1694     0.1835     0.1976     0.2118 
              0.2259     0.2471     0.2824     0.3176     0.3529 
              0.3882     0.4235     0.4588     0.4941     0.5294 
              0.5647     0.6000     0.6353     0.6706     0.7059 
              0.7412     0.7765     0.8118     0.8306     0.8412 
              0.8518     0.8624     0.8729     0.8835     0.8941 
              0.9047     0.9153     0.9259     0.9365     0.9471 
              0.9576     0.9682     0.9788     0.9894     1.0000 
  

  Analysis begun on:  Mon Jul 23 02:45:37 2018
  Analysis ended on:  Mon Jul 23 02:45:41 2018
  Total elapsed time: 00:00:04