
  EPA STORM WATER MANAGEMENT MODEL - VERSION 5.1 (Build 5.2.0.dev1)
  --------------------------------------------------------------

  Example 1 
  

  Analysis begun on:  Tue Jul 24 17:41:21 2018
  Analysis ended on:  Tue Jul 24 17:41:21 2018
  Total elapsed time: < 1 sec